[TITLE]
EPANET Example Network 2 
Example of modeling a 55-hour fluoride tracer study. 
Measured fluoride data is contained in the file Net2-FL.dat 

[JUNCTIONS]
 1                                    50.0000
 2                                   100.0000
 3                                    60.0000
 4                                    60.0000
 5                                   100.0000
 6                                   125.0000
 7                                   160.0000
 8                                   110.0000
 9                                   180.0000
 10                                  130.0000
 11                                  185.0000
 12                                  210.0000
 13                                  210.0000
 14                                  200.0000
 15                                  190.0000
 16                                  150.0000
 17                                  180.0000
 18                                  100.0000
 19                                  150.0000
 20                                  170.0000
 21                                  150.0000
 22                                  200.0000
 23                                  230.0000
 24                                  190.0000
 25                                  230.0000
 27                                  130.0000
 28                                  110.0000
 29                                  110.0000
 30                                  130.0000
 31                                  190.0000
 32                                  110.0000
 33                                  180.0000
 34                                  190.0000
 35                                  110.0000
 36                                  110.0000

[RESERVOIRS]

[TANKS]
 26                                  235.0000      56.7000      50.0000      70.0000      50.0000   98174.7704 

[PIPES]
 1                               1                               2                                  2400.0000      12.0000     100.0000       0.0000 
 2                               2                               5                                   800.0000      12.0000     100.0000       0.0000 
 3                               2                               3                                  1300.0000       8.0000     100.0000       0.0000 
 4                               3                               4                                  1200.0000       8.0000     100.0000       0.0000 
 5                               4                               5                                  1000.0000      12.0000     100.0000       0.0000 
 6                               5                               6                                  1200.0000      12.0000     100.0000       0.0000 
 7                               6                               7                                  2700.0000      12.0000     100.0000       0.0000 
 8                               7                               8                                  1200.0000      12.0000     140.0000       0.0000 
 9                               7                               9                                   400.0000      12.0000     100.0000       0.0000 
 10                              8                               10                                 1000.0000       8.0000     140.0000       0.0000 
 11                              9                               11                                  700.0000      12.0000     100.0000       0.0000 
 12                              11                              12                                 1900.0000      12.0000     100.0000       0.0000 
 13                              12                              13                                  600.0000      12.0000     100.0000       0.0000 
 14                              13                              14                                  400.0000      12.0000     100.0000       0.0000 
 15                              14                              15                                  300.0000      12.0000     100.0000       0.0000 
 16                              13                              16                                 1500.0000       8.0000     100.0000       0.0000 
 17                              15                              17                                 1500.0000       8.0000     100.0000       0.0000 
 18                              16                              17                                  600.0000       8.0000     100.0000       0.0000 
 19                              17                              18                                  700.0000      12.0000     100.0000       0.0000 
 20                              18                              32                                  350.0000      12.0000     100.0000       0.0000 
 21                              16                              19                                 1400.0000       8.0000     100.0000       0.0000 
 22                              14                              20                                 1100.0000      12.0000     100.0000       0.0000 
 23                              20                              21                                 1300.0000       8.0000     100.0000       0.0000 
 24                              21                              22                                 1300.0000       8.0000     100.0000       0.0000 
 25                              20                              22                                 1300.0000       8.0000     100.0000       0.0000 
 26                              24                              23                                  600.0000      12.0000     100.0000       0.0000 
 27                              15                              24                                  250.0000      12.0000     100.0000       0.0000 
 28                              23                              25                                  300.0000      12.0000     100.0000       0.0000 
 29                              25                              26                                  200.0000      12.0000     100.0000       0.0000 
 30                              25                              31                                  600.0000      12.0000     100.0000       0.0000 
 31                              31                              27                                  400.0000       8.0000     100.0000       0.0000 
 32                              27                              29                                  400.0000       8.0000     100.0000       0.0000 
 34                              29                              28                                  700.0000       8.0000     100.0000       0.0000 
 35                              22                              33                                 1000.0000       8.0000     100.0000       0.0000 
 36                              33                              34                                  400.0000       8.0000     100.0000       0.0000 
 37                              32                              19                                  500.0000       8.0000     100.0000       0.0000 
 38                              29                              35                                  500.0000       8.0000     100.0000       0.0000 
 39                              35                              30                                 1000.0000       8.0000     100.0000       0.0000 
 40                              28                              35                                  700.0000       8.0000     100.0000       0.0000 
 41                              28                              36                                  300.0000       8.0000     100.0000       0.0000 

[PUMPS]

[VALVES]

[DEMANDS]
 1                                  -694.400000    2
 2                                     8.000000    1
 3                                    14.000000    1
 4                                     8.000000    1
 5                                     8.000000    1
 6                                     5.000000    1
 7                                     4.000000    1
 8                                     9.000000    1
 9                                    14.000000    1
 10                                    5.000000    1
 11                                   34.780000    1
 12                                   16.000000    1
 13                                    2.000000    1
 14                                    2.000000    1
 15                                    2.000000    1
 16                                   20.000000    1
 17                                   20.000000    1
 18                                   20.000000    1
 19                                    5.000000    1
 20                                   19.000000    1
 21                                   16.000000    1
 22                                   10.000000    1
 23                                    8.000000    1
 24                                   11.000000    1
 25                                    6.000000    1
 27                                    8.000000    1
 28                                    0.000000    1
 29                                    7.000000    1
 30                                    3.000000    1
 31                                   17.000000    1
 32                                   17.000000    1
 33                                    1.500000    1
 34                                    1.500000    1
 35                                    0.000000    1
 36                                    1.000000    1

[EMITTERS]

[STATUS]

[PATTERNS]
 1                                     1.2600       1.0400       0.9700       0.9700       0.8900       1.1900
 1                                     1.2800       0.6700       0.6700       1.3400       2.4600       0.9700
 1                                     0.9200       0.6800       1.4300       0.6100       0.3100       0.7800
 1                                     0.3700       0.6700       1.2600       1.5600       1.1900       1.2600
 1                                     0.6000       1.1000       1.0300       0.7300       0.8800       1.0600
 1                                     0.9900       1.7200       1.1200       1.3400       1.1200       0.9700
 1                                     1.0400       1.1500       0.9100       0.6100       0.6800       0.4600
 1                                     0.5100       0.7400       1.1200       1.3400       1.2600       0.9700
 1                                     0.8200       1.3700       1.0300       0.8100       0.8800       0.8100
 1                                     0.8100
 2                                     0.9600       0.9600       0.9600       0.9600       0.9600       0.9600
 2                                     0.6200       0.0000       0.0000       0.0000       0.0000       0.0000
 2                                     0.8000       1.0000       1.0000       1.0000       1.0000       0.1500
 2                                     0.0000       0.0000       0.0000       0.0000       0.0000       0.0000
 2                                     0.5500       0.9200       0.9200       0.9200       0.9200       0.9000
 2                                     0.9000       0.4500       0.0000       0.0000       0.0000       0.0000
 2                                     0.0000       0.7000       1.0000       1.0000       1.0000       1.0000
 2                                     0.2000       0.0000       0.0000       0.0000       0.0000       0.0000
 2                                     0.0000       0.7400       0.9200       0.9200       0.9200       0.9200
 2                                     0.9200
 3                                     0.9800       1.0200       1.0500       0.9900       0.6400       0.4600
 3                                     0.3500       0.3500       0.3500       0.3500       0.3500       0.3500
 3                                     0.1700       0.1700       0.1300       0.1300       0.1300       0.1500
 3                                     0.1500       0.1500       0.1500       0.1500       0.1500       0.1500
 3                                     0.1500       0.1200       0.1000       0.0800       0.1100       0.0900
 3                                     0.0900       0.0800       0.0800       0.0800       0.0800       0.0800
 3                                     0.0800       0.0900       0.0700       0.0700       0.0900       0.0900
 3                                     0.0900       0.0900       0.0900       0.0900       0.0900       0.0900
 3                                     0.0900       0.0800       0.3500       0.7200       0.8200       0.9200
 3                                     1.0000

[CURVES]

[CONTROLS]

[QUALITY]
 1                                     1.000000
 2                                     1.000000
 3                                     1.000000
 4                                     1.000000
 5                                     1.000000
 6                                     1.000000
 7                                     1.000000
 8                                     1.000000
 9                                     1.000000
 10                                    1.000000
 11                                    1.000000
 12                                    1.000000
 13                                    1.000000
 14                                    1.000000
 15                                    1.000000
 16                                    1.000000
 17                                    1.000000
 18                                    1.000000
 19                                    1.000000
 20                                    1.000000
 21                                    1.000000
 22                                    1.000000
 23                                    1.000000
 24                                    1.000000
 25                                    1.000000
 27                                    1.000000
 28                                    1.000000
 29                                    1.000000
 30                                    1.000000
 31                                    1.000000
 32                                    1.000000
 33                                    1.000000
 34                                    1.000000
 35                                    1.000000
 36                                    1.000000
 26                                    1.000000

[SOURCES]
 1                               CONCEN         1.000000 3

[MIXING]
 26                              MIXED          1.0000

[REACTIONS]
 ORDER  BULK            1.00
 ORDER  WALL            1
 ORDER  TANK            1.00
 GLOBAL BULK            0.000000
 GLOBAL WALL            0.000000

[ENERGY]
 GLOBAL EFFIC        75.0000
 DEMAND CHARGE       0.0000

[TIMES]
 DURATION            55:00:00
 HYDRAULIC TIMESTEP  1:00:00
 QUALITY TIMESTEP    0:05:00
 REPORT TIMESTEP     1:00:00
 REPORT START        0:00:00
 PATTERN TIMESTEP    1:00:00
 PATTERN START       0:00:00
 RULE TIMESTEP       0:06:00
 START CLOCKTIME     8:00:00
 STATISTIC           NONE

[OPTIONS]
 UNITS               GPM
 PRESSURE            PSI
 HEADLOSS            H-W
 PATTERN             1
 UNBALANCED          CONTINUE 10
 QUALITY             Fluoride mg/L
 DEMAND MULTIPLIER   1.0000
 EMITTER EXPONENT    0.5000
 VISCOSITY           1.000000
 DIFFUSIVITY         1.000000
 SPECIFIC GRAVITY    1.000000
 TRIALS              40
 ACCURACY            0.00100000
 TOLERANCE           0.01000000
 CHECKFREQ           2
 MAXCHECK            10
 DAMPLIMIT           0.00000000

[REPORT]
 PAGESIZE            0
 STATUS              NO
 SUMMARY             NO
 ENERGY              NO
 NODES               NONE
 LINKS               NONE
 Elevation           NO
 Demand              PRECISION 2
 Head                PRECISION 2
 Pressure            PRECISION 2
 Quality             PRECISION 2
 Length              NO
 Diameter            NO
 Flow                PRECISION 2
 Velocity            PRECISION 2
 Headloss            PRECISION 2
 Quality             NO
 State               NO
 Setting             NO
 Reaction            NO
[TAGS]

[RULES]


[COORDINATES]
;Node            	X-Coord         	Y-Coord
 1               	-110.9416450    	32.2427911      
 2               	-110.9414237    	32.2454883      
 3               	-110.9427112    	32.2455284      
 4               	-110.9414240    	32.2467056      
 5               	-110.9401367    	32.2455209      
 6               	-110.9385295    	32.2455209      
 7               	-110.9366340    	32.2455299      
 8               	-110.9366183    	32.2440895      
 9               	-110.9366893    	32.2466369      
 10              	-110.9354118    	32.2427911      
 11              	-110.9385474    	32.2466189      
 12              	-110.9395951    	32.2468484      
 13              	-110.9398514    	32.2474873      
 14              	-110.9385474    	32.2484006      
 15              	-110.9414426    	32.2487471      
 16              	-110.9414307    	32.2476267      
 17              	-110.9414426    	32.2485851      
 18              	-110.9425425    	32.2488641      
 19              	-110.9420394    	32.2476897      
 20              	-110.9353094    	32.2485801      
 21              	-110.9352667    	32.2468703      
 22              	-110.9311553    	32.2469243      
 23              	-110.9376943    	32.2501508      
 24              	-110.9377157    	32.2493140      
 25              	-110.9377031    	32.2503498      
 27              	-110.9332714    	32.2503768      
 28              	-110.9268655    	32.2531367      
 29              	-110.9311642    	32.2503870      
 30              	-110.9259042    	32.2485684      
 31              	-110.9354392    	32.2503408      
 32              	-110.9425199    	32.2479597      
 33              	-110.9297351    	32.2468793      
 34              	-110.9297030    	32.2451336      
 35              	-110.9269033    	32.2504230      
 36              	-110.9248516    	32.2532951      
 26              	-110.9446581    	32.2502725      

[VERTICES]
;Link            	X-Coord         	Y-Coord
 1               	-110.9416183    	32.2431510      
 1               	-110.9414528    	32.2438350      
 4               	-110.9425770    	32.2461002      
 4               	-110.9420645    	32.2465682      
 5               	-110.9408684    	32.2465502      
 5               	-110.9404520    	32.2462802      
 5               	-110.9401957    	32.2458843      
 10              	-110.9365115    	32.2438825      
 10              	-110.9360417    	32.2436395      
 10              	-110.9354009    	32.2436395      
 12              	-110.9391317    	32.2466382      
 13              	-110.9398194    	32.2471453      
 14              	-110.9385764    	32.2475201      
 15              	-110.9404224    	32.2484155      
 15              	-110.9409457    	32.2484785      
 16              	-110.9406801    	32.2474933      
 19              	-110.9419338    	32.2487741      
 22              	-110.9366905    	32.2483781      
 22              	-110.9366585    	32.2486031      
 22              	-110.9356119    	32.2485761      
 25              	-110.9311432    	32.2486237      
 27              	-110.9413102    	32.2490411      
 27              	-110.9408937    	32.2493110      
 27              	-110.9388434    	32.2492841      
 34              	-110.9310730    	32.2531007      
 34              	-110.9300905    	32.2531007      
 34              	-110.9300799    	32.2535236      
 34              	-110.9282965    	32.2535326      
 34              	-110.9282538    	32.2531187      
 37              	-110.9423460    	32.2477633      
 39              	-110.9268294    	32.2485779      
 41              	-110.9268272    	32.2540149      
 41              	-110.9248303    	32.2540509      

[LABELS]
;X-Coord           Y-Coord          Label & Anchor Node
 -110.9413681     32.2429591       "Pump Station"                 
 -110.9449562     32.2508060       "Tank"                 

[BACKDROP]
 DIMENSIONS     	-110.958931     	32.236544       	-110.910652     	32.259519       
 UNITS          	Degrees
 FILE           	
 OFFSET         	0.00            	0.00    

[END]